WIDTH=32;
DEPTH=64;
ADDRESS_RADIX=HEX;
DATA_RADIX=HEX;
CONTENT
BEGIN
    00 : FE010113;
    01 : 00112E23;
    02 : 00812C23;
    03 : 00912A23;
    04 : 01212823;
    05 : 00001437;
    06 : 91540413;
    07 : 04700493;
    08 : 00040513;
    09 : 00048593;
    0A : 080000EF;
    0B : 00050913;
    0C : 00040513;
    0D : 00048593;
    0E : 090000EF;
    0F : 00A12623;
    10 : 00048513;
    11 : 00090593;
    12 : 040000EF;
    13 : 00C12283;
    14 : 00C12283;
    15 : 00550333;
    16 : 408303B3;
    17 : 0013B513;
    18 : 01012903;
    19 : 01012903;
    1A : 01412483;
    1B : 01412483;
    1C : 01812403;
    1D : 01812403;
    1E : 01C12083;
    1F : 01C12083;
    20 : 02010113;
    21 : 00008067;
    22 : 00000293;
    23 : 00000313;
    24 : 00B35863;
    25 : 00A282B3;
    26 : 00130313;
    27 : FF5FF06F;
    28 : 00028513;
    29 : 00008067;
    2A : 00000293;
    2B : 00050313;
    2C : 00B34863;
    2D : 40B30333;
    2E : 00128293;
    2F : FF5FF06F;
    30 : 00028513;
    31 : 00008067;
    32 : 00050293;
    33 : 00B2C663;
    34 : 40B282B3;
    35 : FF9FF06F;
    36 : 00028513;
    37 : 00008067;
    [38..3F] : 00000013; -- NOP (addi x0,x0,0)
END;